*Heading
** Job name: Job-sc3d Model name: Model-1
** Generated by: Abaqus/CAE 2017
*Preprint, echo=NO, model=NO, history=NO, contact=NO
**
** PARTS
**
*Part, name=Part-3
*Node
      1,  0.707106769,  0.707106769,           0.
      2,           1.,           0.,           0.
      3,  0.707106769,           0.,  0.707106769
      4,  0.577350259,  0.577350259,  0.577350259
      5,   0.91580981,  0.916850388,           0.
      6,   1.30769229,           0.,           0.
      7,  0.924421549,           0.,  0.921444595
      8,  0.965771556,  0.965459049,  0.965799749
      9,           0.,           0.,           1.
     10,           0.,  0.707106769,  0.707106769
     11,           0.,           0.,   1.30769229
     12,           0.,   0.92052865,  0.924215198
     13,           0.,           1.,           0.
     14,           0.,   1.30769229,           0.
     15,           5.,           0.,           0.
     16,           5.,           0.,           1.
     17,           5.,           1.,           0.
     18,           5.,           1.,           1.
     19,           5.,           0.,           5.
     20,           1.,           0.,           5.
** ... 4086 like lines cut
*Element, type=C3D8R
   1,    5,   42,  401,   49,    1,   34,  397,   41
   2,   42,   43,  402,  401,   34,   35,  398,  397
   3,   43,    6,   44,  402,   35,    2,   36,  398
   4,   49,  401,  403,   48,   41,  397,  399,   40
   5,  401,  402,  404,  403,  397,  398,  400,  399
   6,  402,   44,   45,  404,  398,   36,   37,  400
   7,   48,  403,   47,    8,   40,  399,   39,    4
   8,  403,  404,   46,   47,  399,  400,   38,   39
   9,  404,   45,    7,   46,  400,   37,    3,   38
  10,    7,   57,  409,   46,    3,   50,  405,   38
  11,   57,   56,  410,  409,   50,   51,  406,  405
  12,   56,   11,   59,  410,   51,    9,   52,  406
  13,   46,  409,  411,   47,   38,  405,  407,   39
  14,  409,  410,  412,  411,  405,  406,  408,  407
  15,  410,   59,   58,  412,  406,   52,   53,  408
  16,   47,  411,   60,    8,   39,  407,   55,    4
  17,  411,  412,   61,   60,  407,  408,   54,   55
  18,  412,   58,   12,   61,  408,   53,   10,   54
  19,   12,   66,  417,   61,   10,   62,  413,   54
  20,   66,   67,  418,  417,   62,   63,  414,  413
** ... 3355 like lines cut
*Nset, nset=Set-1, generate
    1,  4106,     1
*Elset, elset=Set-1, generate
    1,  3375,     1
** Section: Section-1
*Solid Section, elset=Set-1, material=Material-1
,
*End Part
**  
**
** ASSEMBLY
**
*Assembly, name=Assembly
**  
*Instance, name=Part-3-1, part=Part-3
*End Instance
**  
*Nset, nset=Set-1, instance=Part-3-1
    9,   10,   11,   12,   13,   14,   23,   24,   25,   27,   31,   52,   53,   58,   59,   62
   63,   66,   67,  194,  195,  196,  197,  198,  199,  200,  201,  202,  203,  204,  207,  208
  209,  210,  211,  212,  213,  214,  215,  216,  217,  218,  219,  220,  221,  222,  223,  224
  225,  226,  227,  228,  229,  230,  244,  245,  246,  247,  248,  249,  250,  251,  252,  253
  254,  270,  271,  318,  319,  320,  321,  322,  323,  324,  325,  326,  327,  328,  329,  330
  331,  332,  333,  334,  335,  336,  337,  338,  339,  865,  866,  867,  868,  869,  870,  871
  872,  873,  874,  875,  876,  877,  878,  879,  880,  881,  882,  883,  884,  885,  886,  939
  940,  941,  942,  943,  944,  945,  946,  947,  948,  949,  950,  951,  952,  953,  954,  955
  956,  957,  958,  959,  960, 1269, 1270, 1271, 1272, 1273, 1274, 1275, 1276, 1277, 1278, 1279
 1280, 1281, 1282, 1283, 1284, 1285, 1286, 1287, 1288, 1289, 1290, 1291, 1292, 1293, 1294, 1295
 1296, 1297, 1298, 1299, 1300, 1301, 1302, 1303, 1304, 1305, 1306, 1307, 1308, 1309, 1310, 1311
 1312, 1313, 1314, 1315, 1316, 1317, 1318, 1319, 1320, 1321, 1322, 1323, 1324, 1325, 1326, 1327
 1328, 1329, 1330, 1331, 1332, 1333, 1334, 1335, 1336, 1337, 1338, 1339, 1340, 1341, 1342, 1343
 1344, 1345, 1346, 1347, 1348, 1349, 1350, 1351, 1352, 1353, 1354, 1355, 1356, 1357, 1358, 1359
 1360, 1361, 1362, 1363, 1364, 1365, 1366, 1367, 1368, 1369, 1370, 1371, 1372, 1373, 1374, 1375
 1376, 1377, 1378, 1379, 1380, 1381, 1382, 1383, 1384, 1385, 1386, 1387, 1388, 1389
*Elset, elset=Set-1, instance=Part-3-1
   12,   15,   18,   19,   20,   21,  570,  573,  576,  579,  582,  585,  588,  591,  594,  597
  600,  603,  606,  609,  612,  615,  618,  621,  624,  627,  630,  633,  636,  639,  642,  645
  648,  651,  654,  657,  660,  663,  666,  669,  672,  675,  676,  677,  678,  679,  680,  681
  682,  683,  684,  685,  686,  687,  712,  713,  714,  715,  716,  717,  718,  719,  720,  721
  722,  723,  748,  749,  750,  751,  752,  753,  754,  755,  756,  757,  758,  759, 1216, 1217
 1218, 1219, 1220, 1221, 1222, 1223, 1224, 1225, 1226, 1227, 1228, 1229, 1230, 1231, 1232, 1233
 1234, 1235, 1236, 1237, 1238, 1239, 1240, 1241, 1242, 1243, 1244, 1245, 1246, 1247, 1248, 1249
 1250, 1251, 1252, 1253, 1254, 1255, 1256, 1257, 1258, 1259, 1260, 1261, 1262, 1263, 1264, 1265
 1266, 1267, 1268, 1269, 1270, 1271, 1272, 1273, 1274, 1275, 1276, 1277, 1278, 1279, 1280, 1281
 1282, 1283, 1284, 1285, 1286, 1287, 1288, 1289, 1290, 1291, 1292, 1293, 1294, 1295, 1296, 1297
 1298, 1299, 1300, 1301, 1302, 1303, 1304, 1305, 1306, 1307, 1308, 1309, 1310, 1311, 1312, 1313
 1314, 1315, 1316, 1317, 1318, 1319, 1320, 1321, 1322, 1323, 1324, 1325, 1326, 1327, 1328, 1329
 1330, 1331, 1332, 1333, 1334, 1335, 1336, 1337, 1338, 1339, 1340, 1341, 1342, 1343, 1344, 1345
 1346, 1347, 1348, 1349, 1350, 1351, 1352, 1353, 1354, 1355, 1356, 1357, 1358, 1359
*Nset, nset=Set-2, instance=Part-3-1
    9,   10,   11,   12,   13,   14,   23,   24,   25,   27,   31,   52,   53,   58,   59,   62
   63,   66,   67,  194,  195,  196,  197,  198,  199,  200,  201,  202,  203,  204,  207,  208
  209,  210,  211,  212,  213,  214,  215,  216,  217,  218,  219,  220,  221,  222,  223,  224
  225,  226,  227,  228,  229,  230,  244,  245,  246,  247,  248,  249,  250,  251,  252,  253
  254,  270,  271,  318,  319,  320,  321,  322,  323,  324,  325,  326,  327,  328,  329,  330
  331,  332,  333,  334,  335,  336,  337,  338,  339,  865,  866,  867,  868,  869,  870,  871
  872,  873,  874,  875,  876,  877,  878,  879,  880,  881,  882,  883,  884,  885,  886,  939
  940,  941,  942,  943,  944,  945,  946,  947,  948,  949,  950,  951,  952,  953,  954,  955
  956,  957,  958,  959,  960, 1269, 1270, 1271, 1272, 1273, 1274, 1275, 1276, 1277, 1278, 1279
 1280, 1281, 1282, 1283, 1284, 1285, 1286, 1287, 1288, 1289, 1290, 1291, 1292, 1293, 1294, 1295
 1296, 1297, 1298, 1299, 1300, 1301, 1302, 1303, 1304, 1305, 1306, 1307, 1308, 1309, 1310, 1311
 1312, 1313, 1314, 1315, 1316, 1317, 1318, 1319, 1320, 1321, 1322, 1323, 1324, 1325, 1326, 1327
 1328, 1329, 1330, 1331, 1332, 1333, 1334, 1335, 1336, 1337, 1338, 1339, 1340, 1341, 1342, 1343
 1344, 1345, 1346, 1347, 1348, 1349, 1350, 1351, 1352, 1353, 1354, 1355, 1356, 1357, 1358, 1359
 1360, 1361, 1362, 1363, 1364, 1365, 1366, 1367, 1368, 1369, 1370, 1371, 1372, 1373, 1374, 1375
 1376, 1377, 1378, 1379, 1380, 1381, 1382, 1383, 1384, 1385, 1386, 1387, 1388, 1389
*Elset, elset=Set-2, instance=Part-3-1
   12,   15,   18,   19,   20,   21,  570,  573,  576,  579,  582,  585,  588,  591,  594,  597
  600,  603,  606,  609,  612,  615,  618,  621,  624,  627,  630,  633,  636,  639,  642,  645
  648,  651,  654,  657,  660,  663,  666,  669,  672,  675,  676,  677,  678,  679,  680,  681
  682,  683,  684,  685,  686,  687,  712,  713,  714,  715,  716,  717,  718,  719,  720,  721
  722,  723,  748,  749,  750,  751,  752,  753,  754,  755,  756,  757,  758,  759, 1216, 1217
 1218, 1219, 1220, 1221, 1222, 1223, 1224, 1225, 1226, 1227, 1228, 1229, 1230, 1231, 1232, 1233
 1234, 1235, 1236, 1237, 1238, 1239, 1240, 1241, 1242, 1243, 1244, 1245, 1246, 1247, 1248, 1249
 1250, 1251, 1252, 1253, 1254, 1255, 1256, 1257, 1258, 1259, 1260, 1261, 1262, 1263, 1264, 1265
 1266, 1267, 1268, 1269, 1270, 1271, 1272, 1273, 1274, 1275, 1276, 1277, 1278, 1279, 1280, 1281
 1282, 1283, 1284, 1285, 1286, 1287, 1288, 1289, 1290, 1291, 1292, 1293, 1294, 1295, 1296, 1297
 1298, 1299, 1300, 1301, 1302, 1303, 1304, 1305, 1306, 1307, 1308, 1309, 1310, 1311, 1312, 1313
 1314, 1315, 1316, 1317, 1318, 1319, 1320, 1321, 1322, 1323, 1324, 1325, 1326, 1327, 1328, 1329
 1330, 1331, 1332, 1333, 1334, 1335, 1336, 1337, 1338, 1339, 1340, 1341, 1342, 1343, 1344, 1345
 1346, 1347, 1348, 1349, 1350, 1351, 1352, 1353, 1354, 1355, 1356, 1357, 1358, 1359
*Nset, nset=Set-3, instance=Part-3-1
    1,    2,    5,    6,   13,   14,   15,   17,   25,   26,   29,   34,   35,   42,   43,   64
   65,   68,   69,   70,   71,   72,   73,   74,   75,   76,   77,   78,   79,   80,   94,   95
   96,   97,   98,   99,  100,  101,  102,  103,  104,  120,  121,  220,  221,  222,  223,  224
  225,  226,  227,  228,  229,  230,  231,  232,  233,  234,  235,  236,  237,  238,  239,  240
  241,  242,  243,  272,  273,  274,  275,  276,  277,  278,  279,  280,  281,  282,  283,  284
  285,  286,  287,  288,  289,  290,  291,  292,  293,  469,  470,  471,  472,  473,  474,  475
  476,  477,  478,  479,  480,  481,  482,  483,  484,  485,  486,  487,  488,  489,  490,  891
  892,  893,  894,  895,  896,  897,  898,  899,  900,  901,  902,  903,  904,  905,  906,  907
  908,  909,  910,  911,  912,  983,  984,  985,  986,  987,  988,  989,  990,  991,  992,  993
  994,  995,  996,  997,  998,  999, 1000, 1001, 1002, 1003, 1004, 1005, 1006, 1007, 1008, 1009
 1010, 1011, 1012, 1013, 1014, 1015, 1016, 1017, 1018, 1019, 1020, 1021, 1022, 1023, 1024, 1025
 1026, 1027, 1028, 1029, 1030, 1031, 1032, 1033, 1034, 1035, 1036, 1037, 1038, 1039, 1040, 1041
 1042, 1043, 1044, 1045, 1046, 1047, 1048, 1049, 1050, 1051, 1052, 1053, 1054, 1055, 1056, 1057
 1058, 1059, 1060, 1061, 1062, 1063, 1064, 1065, 1066, 1067, 1068, 1069, 1070, 1071, 1072, 1073
 1074, 1075, 1076, 1077, 1078, 1079, 1080, 1081, 1082, 1083, 1084, 1085, 1086, 1087, 1088, 1089
 1090, 1091, 1092, 1093, 1094, 1095, 1096, 1097, 1098, 1099, 1100, 1101, 1102, 1103
*Elset, elset=Set-3, instance=Part-3-1
   1,   2,   3,  21,  24,  27,  28,  29,  30,  31,  32,  33,  34,  35,  36,  37
  38,  39,  64,  65,  66,  67,  68,  69,  70,  71,  72,  73,  74,  75, 100, 101
 102, 103, 104, 105, 106, 107, 108, 109, 110, 111, 676, 677, 678, 679, 680, 681
 682, 683, 684, 685, 686, 687, 688, 689, 690, 691, 692, 693, 694, 695, 696, 697
 698, 699, 700, 701, 702, 703, 704, 705, 706, 707, 708, 709, 710, 711, 784, 785
 786, 787, 788, 789, 790, 791, 792, 793, 794, 795, 796, 797, 798, 799, 800, 801
 802, 803, 804, 805, 806, 807, 808, 809, 810, 811, 812, 813, 814, 815, 816, 817
 818, 819, 820, 821, 822, 823, 824, 825, 826, 827, 828, 829, 830, 831, 832, 833
 834, 835, 836, 837, 838, 839, 840, 841, 842, 843, 844, 845, 846, 847, 848, 849
 850, 851, 852, 853, 854, 855, 856, 857, 858, 859, 860, 861, 862, 863, 864, 865
 866, 867, 868, 869, 870, 871, 872, 873, 874, 875, 876, 877, 878, 879, 880, 881
 882, 883, 884, 885, 886, 887, 888, 889, 890, 891, 892, 893, 894, 895, 896, 897
 898, 899, 900, 901, 902, 903, 904, 905, 906, 907, 908, 909, 910, 911, 912, 913
 914, 915, 916, 917, 918, 919, 920, 921, 922, 923, 924, 925, 926, 927
*Nset, nset=Set-4, instance=Part-3-1
   2,   3,   6,   7,   9,  11,  15,  16,  19,  20,  23,  36,  37,  44,  45,  50
  51,  56,  57,  70,  71,  72,  73,  74,  75,  76,  77,  78,  79,  80,  81,  82
  83,  84,  85,  86,  87,  88,  89,  90,  91,  92,  93, 122, 123, 124, 125, 126
 127, 128, 129, 130, 131, 132, 133, 134, 135, 136, 137, 138, 139, 140, 141, 142
 143, 144, 145, 146, 147, 148, 149, 150, 151, 152, 153, 154, 192, 193, 194, 195
 196, 197, 198, 199, 200, 201, 202, 203, 204, 421, 422, 423, 424, 425, 426, 427
 428, 429, 430, 431, 432, 433, 434, 435, 436, 437, 438, 439, 440, 441, 442, 513
 514, 515, 516, 517, 518, 519, 520, 521, 522, 523, 524, 525, 526, 527, 528, 529
 530, 531, 532, 533, 534, 535, 536, 537, 538, 539, 540, 541, 542, 543, 544, 545
 546, 547, 548, 549, 550, 551, 552, 553, 554, 555, 556, 557, 558, 559, 560, 561
 562, 563, 564, 565, 566, 567, 568, 569, 570, 571, 572, 573, 574, 575, 576, 577
 578, 579, 580, 581, 582, 583, 584, 585, 586, 587, 588, 589, 590, 591, 592, 593
 594, 595, 596, 597, 598, 599, 600, 601, 602, 603, 604, 605, 606, 607, 608, 609
 610, 611, 612, 613, 614, 615, 616, 617, 618, 619, 620, 621, 622, 623, 624, 625
 626, 627, 628, 629, 630, 631, 632, 633, 821, 822, 823, 824, 825, 826, 827, 828
 829, 830, 831, 832, 833, 834, 835, 836, 837, 838, 839, 840, 841, 842
*Elset, elset=Set-4, instance=Part-3-1
   3,   6,   9,  10,  11,  12,  28,  29,  30,  31,  32,  33,  34,  35,  36,  37
  38,  39,  40,  41,  42,  43,  44,  45,  46,  47,  48,  49,  50,  51,  52,  53
  54,  55,  56,  57,  58,  59,  60,  61,  62,  63, 136, 137, 138, 139, 140, 141
 142, 143, 144, 145, 146, 147, 148, 149, 150, 151, 152, 153, 154, 155, 156, 157
 158, 159, 160, 161, 162, 163, 164, 165, 166, 167, 168, 169, 170, 171, 172, 173
 174, 175, 176, 177, 178, 179, 180, 181, 182, 183, 184, 185, 186, 187, 188, 189
 190, 191, 192, 193, 194, 195, 196, 197, 198, 199, 200, 201, 202, 203, 204, 205
 206, 207, 208, 209, 210, 211, 212, 213, 214, 215, 216, 217, 218, 219, 220, 221
 222, 223, 224, 225, 226, 227, 228, 229, 230, 231, 232, 233, 234, 235, 236, 237
 238, 239, 240, 241, 242, 243, 244, 245, 246, 247, 248, 249, 250, 251, 252, 253
 254, 255, 256, 257, 258, 259, 260, 261, 262, 263, 264, 265, 266, 267, 268, 269
 270, 271, 272, 273, 274, 275, 276, 277, 278, 279, 568, 569, 570, 571, 572, 573
 574, 575, 576, 577, 578, 579, 580, 581, 582, 583, 584, 585, 586, 587, 588, 589
 590, 591, 592, 593, 594, 595, 596, 597, 598, 599, 600, 601, 602, 603
*Nset, nset=Set-5, instance=Part-3-1
    1,    2,    5,    6,   13,   14,   15,   17,   25,   26,   29,   34,   35,   42,   43,   64
   65,   68,   69,   70,   71,   72,   73,   74,   75,   76,   77,   78,   79,   80,   94,   95
   96,   97,   98,   99,  100,  101,  102,  103,  104,  120,  121,  220,  221,  222,  223,  224
  225,  226,  227,  228,  229,  230,  231,  232,  233,  234,  235,  236,  237,  238,  239,  240
  241,  242,  243,  272,  273,  274,  275,  276,  277,  278,  279,  280,  281,  282,  283,  284
  285,  286,  287,  288,  289,  290,  291,  292,  293,  469,  470,  471,  472,  473,  474,  475
  476,  477,  478,  479,  480,  481,  482,  483,  484,  485,  486,  487,  488,  489,  490,  891
  892,  893,  894,  895,  896,  897,  898,  899,  900,  901,  902,  903,  904,  905,  906,  907
  908,  909,  910,  911,  912,  983,  984,  985,  986,  987,  988,  989,  990,  991,  992,  993
  994,  995,  996,  997,  998,  999, 1000, 1001, 1002, 1003, 1004, 1005, 1006, 1007, 1008, 1009
 1010, 1011, 1012, 1013, 1014, 1015, 1016, 1017, 1018, 1019, 1020, 1021, 1022, 1023, 1024, 1025
 1026, 1027, 1028, 1029, 1030, 1031, 1032, 1033, 1034, 1035, 1036, 1037, 1038, 1039, 1040, 1041
 1042, 1043, 1044, 1045, 1046, 1047, 1048, 1049, 1050, 1051, 1052, 1053, 1054, 1055, 1056, 1057
 1058, 1059, 1060, 1061, 1062, 1063, 1064, 1065, 1066, 1067, 1068, 1069, 1070, 1071, 1072, 1073
 1074, 1075, 1076, 1077, 1078, 1079, 1080, 1081, 1082, 1083, 1084, 1085, 1086, 1087, 1088, 1089
 1090, 1091, 1092, 1093, 1094, 1095, 1096, 1097, 1098, 1099, 1100, 1101, 1102, 1103
*Elset, elset=Set-5, instance=Part-3-1
   1,   2,   3,  21,  24,  27,  28,  29,  30,  31,  32,  33,  34,  35,  36,  37
  38,  39,  64,  65,  66,  67,  68,  69,  70,  71,  72,  73,  74,  75, 100, 101
 102, 103, 104, 105, 106, 107, 108, 109, 110, 111, 676, 677, 678, 679, 680, 681
 682, 683, 684, 685, 686, 687, 688, 689, 690, 691, 692, 693, 694, 695, 696, 697
 698, 699, 700, 701, 702, 703, 704, 705, 706, 707, 708, 709, 710, 711, 784, 785
 786, 787, 788, 789, 790, 791, 792, 793, 794, 795, 796, 797, 798, 799, 800, 801
 802, 803, 804, 805, 806, 807, 808, 809, 810, 811, 812, 813, 814, 815, 816, 817
 818, 819, 820, 821, 822, 823, 824, 825, 826, 827, 828, 829, 830, 831, 832, 833
 834, 835, 836, 837, 838, 839, 840, 841, 842, 843, 844, 845, 846, 847, 848, 849
 850, 851, 852, 853, 854, 855, 856, 857, 858, 859, 860, 861, 862, 863, 864, 865
 866, 867, 868, 869, 870, 871, 872, 873, 874, 875, 876, 877, 878, 879, 880, 881
 882, 883, 884, 885, 886, 887, 888, 889, 890, 891, 892, 893, 894, 895, 896, 897
 898, 899, 900, 901, 902, 903, 904, 905, 906, 907, 908, 909, 910, 911, 912, 913
 914, 915, 916, 917, 918, 919, 920, 921, 922, 923, 924, 925, 926, 927
*Elset, elset=_Surf-1_S4, internal, instance=Part-3-1
  687,  699,  711,  723,  735,  747,  759,  771,  783, 1227, 1239, 1251, 1263, 1275, 1287, 1299
 1311, 1323, 1335, 1347, 1359, 1371, 1383, 1395, 1407, 1419, 1431, 1443, 1455, 1467, 1479, 1491
 1503, 1515, 1527, 1539, 1551, 1563, 1575, 1587, 1599, 1611, 1623, 1635, 1647, 1659, 1671, 1683
 1695, 1707, 1719, 1731, 1743, 1755, 1767, 1779, 1791, 1803, 1815, 1827, 1839, 1851, 1863, 1875
 1887, 1899, 1911, 1923, 1935, 1947, 1959, 1971, 1983, 1995, 2007, 2019, 2031, 2043, 2055, 2067
 2079, 2091, 2103, 2115, 2127, 2139, 2151, 2163, 2175, 2187, 2199, 2211, 2223, 2235, 2247, 2259
 2271, 2283, 2295, 2307, 2319, 2331, 2343, 2355, 2367, 2379, 2391, 2403, 2415, 2427, 2439, 2451
 2463, 2475, 2487, 2499, 2511, 2523, 2535, 2547, 2559, 2571, 2583, 2595, 2607, 2619, 2631, 2643
 2655, 2667, 2679, 2691, 2703, 2715, 2727, 2739, 2751, 2763, 2775, 2787, 2799, 2811, 2823, 2835
 2847, 2859, 2871, 2883, 2895, 2907, 2919, 2931, 2943, 2955, 2967, 2979, 2991, 3003, 3015, 3027
 3039, 3051, 3063, 3075, 3087, 3099, 3111, 3123, 3135, 3147, 3159, 3171, 3183, 3195, 3207, 3219
 3231, 3243, 3255, 3267, 3279, 3291, 3303, 3315, 3327, 3339, 3351, 3363, 3375
*Elset, elset=_Surf-1_S3, internal, instance=Part-3-1
  784,  785,  786,  787,  788,  789,  790,  791,  792,  793,  794,  795,  928,  929,  930,  931
  932,  933,  934,  935,  936,  937,  938,  939, 1072, 1073, 1074, 1075, 1076, 1077, 1078, 1079
 1080, 1081, 1082, 1083
*Surface, type=ELEMENT, name=Surf-1
_Surf-1_S4, S4
_Surf-1_S3, S3
*End Assembly
** 
** MATERIALS
** 
*Material, name=Material-1
*Elastic
210000., 0.3
** 
** BOUNDARY CONDITIONS
** 
** Name: BC-1 Type: Displacement/Rotation
*Boundary
Set-2, 1, 1
** Name: BC-2 Type: Displacement/Rotation
*Boundary
Set-4, 2, 2
** Name: BC-3 Type: Displacement/Rotation
*Boundary
Set-5, 3, 3
** ----------------------------------------------------------------
** 
** STEP: Step-1
** 
*Step, name=Step-1, nlgeom=NO
*Static
1., 1., 1e-05, 1.
** 
** LOADS
** 
** Name: Load-1   Type: Pressure
*Dsload
Surf-1, P, -1.
** 
** OUTPUT REQUESTS
** 
*Restart, write, frequency=0
** 
** FIELD OUTPUT: F-Output-1
** 
*Output, field, variable=PRESELECT
** 
** HISTORY OUTPUT: H-Output-1
** 
*Output, history, variable=PRESELECT
*End Step
