*Heading
** Job name: SC Model name: Model-1
** Generated by: Abaqus/CAE 2017
*Preprint, echo=NO, model=NO, history=NO, contact=NO
**
** PARTS
**
*Part, name=Part-1
*Node
      1,           4.,           0.
      2,           0.,           0.
      3,    4.7411809,  0.965925813
      4,          4.5,  0.866025388
      5,   4.13397455,          0.5
      6,   4.03407431,  0.258819044
      7,           5.,           1.
      8,           5.,           5.
      9,           0.,           5.
     10,         3.75,           0.
     11,          3.5,           0.
     12,         3.25,           0.
     13,           3.,           0.
     14,         2.75,           0.
     15,          2.5,           0.
     16,         2.25,           0.
     17,           2.,           0.
     18,         1.75,           0.
     19,          1.5,           0.
     20,         1.25,           0.
** ... 1379 like lines cut
*Element, type=CPS8R
  1,  179,    5,   85,  233,  481,  482,  483,  484
  2,   84,   13,   12,   83,  485,  486,  487,  488
  3,  286,  235,  277,  318,  489,  490,  491,  492
  4,  125,  101,  100,  164,  493,  494,  495,  496
  5,    7,   40,  126,    3,  497,  498,  499,  500
  6,   15,   86,   80,   16,  501,  502,  503,  504
  7,   81,   24,   23,   93,  505,  506,  507,  508
  8,    1,    6,  127,   10,  509,  510,  511,  512
  9,   10,  127,   82,   11,  511,  513,  514,  515
 10,  234,  179,  233,  285,  516,  484,  517,  518
 11,   11,   82,   83,   12,  514,  519,  487,  520
 12,  128,   83,   82,  234,  521,  519,  522,  523
 13,   79,   14,   13,   84,  524,  525,  485,  526
 14,   79,  154,  129,   86,  527,  528,  529,  530
 15,  122,   68,   67,  152,  531,  532,  533,  534
 16,   87,   17,   16,   80,  535,  536,  503,  537
 17,   17,   87,   88,   18,  535,  538,  539,  540
 18,   89,   19,   18,   88,  541,  542,  539,  543
 19,   90,   20,   19,   89,  544,  545,  541,  546
 20,   91,   90,  130,  159,  547,  548,  549,  550
** ... 420 like lines cut
*Nset, nset=Set-3, generate
    1,  1399,     1
*Elset, elset=Set-3, generate
   1,  440,    1
** Section: Section-1
*Solid Section, elset=Set-3, material=Material-1
,
*End Part
**  
**
** ASSEMBLY
**
*Assembly, name=Assembly
**  
*Instance, name=Part-1-1, part=Part-1
*End Instance
**  
*Nset, nset=Set-1, instance=Part-1-1
   1,   2,  10,  11,  12,  13,  14,  15,  16,  17,  18,  19,  20,  21,  22,  23
  24, 486, 504, 506, 512, 515, 520, 525, 536, 540, 542, 545, 667, 708, 714, 716
 741,
*Elset, elset=Set-1, instance=Part-1-1
  2,  6,  7,  8,  9, 11, 13, 16, 17, 18, 19, 55, 71, 74, 75, 83
*Nset, nset=Set-2, instance=Part-1-1
   7,   8,  26,  27,  28,  29,  30,  31,  32,  33,  34,  35,  36,  37,  38,  39
  40, 497, 558, 585, 589, 599, 603, 608, 611, 721, 748, 758, 769, 781, 811, 829
 912,
*Elset, elset=Set-2, instance=Part-1-1
   5,  23,  30,  31,  34,  35,  36,  37,  77,  86,  92,  97, 101, 112, 119, 158
*Elset, elset=_Surf-1_S2, internal, instance=Part-1-1
  23,  24,  44,  45,  46,  48,  51,  52,  53,  93, 105, 132, 163
*Elset, elset=_Surf-1_S1, internal, instance=Part-1-1
 38,
*Elset, elset=_Surf-1_S4, internal, instance=Part-1-1
  49,  50,  54, 100, 109, 110
*Surface, type=ELEMENT, name=Surf-1
_Surf-1_S2, S2
_Surf-1_S1, S1
_Surf-1_S4, S4
*End Assembly
** 
** MATERIALS
** 
*Material, name=Material-1
*Elastic
210000., 0.3
** ----------------------------------------------------------------
** 
** STEP: Step-1
** 
*Step, name=Step-1, nlgeom=NO
*Static
1., 1., 1e-05, 1.
** 
** BOUNDARY CONDITIONS
** 
** Name: BC-1 Type: Displacement/Rotation
*Boundary
Set-1, 2, 2
** Name: BC-2 Type: Displacement/Rotation
*Boundary
Set-2, 1, 1
** 
** LOADS
** 
** Name: Load-1   Type: Pressure
*Dsload
Surf-1, P, -1.
** 
** OUTPUT REQUESTS
** 
*Restart, write, frequency=0
** 
** FIELD OUTPUT: F-Output-1
** 
*Output, field, variable=PRESELECT
** 
** HISTORY OUTPUT: H-Output-1
** 
*Output, history, variable=PRESELECT
*End Step
